! full line comment
&NAMENAME
  variable_long_name = 10.5,

! inline comment
short = .TRUE.
  list = 1,2,3
string = "hello world", ! inline comment
  another_var = .f. ! another comment
/
